Version 4
SHEET 1 904 680
WIRE 128 -32 96 -32
WIRE 240 -32 208 -32
WIRE 384 -32 320 -32
WIRE 192 80 192 48
WIRE -336 96 -336 80
WIRE -256 96 -336 96
WIRE -32 96 -112 96
WIRE 96 96 96 -32
WIRE 96 96 48 96
WIRE 160 96 96 96
WIRE -336 112 -336 96
WIRE 336 112 224 112
WIRE 384 112 384 -32
WIRE 384 112 336 112
WIRE 160 128 128 128
WIRE -256 144 -256 96
WIRE -112 176 -112 96
WIRE -336 192 -336 176
WIRE 192 192 192 144
WIRE -336 240 -336 192
WIRE -336 256 -336 240
WIRE -112 272 -112 208
WIRE 128 272 128 128
WIRE -16 352 -64 352
WIRE 80 352 48 352
WIRE 112 352 80 352
WIRE 208 352 176 352
WIRE 240 352 208 352
WIRE 336 352 304 352
WIRE 80 400 80 352
WIRE 208 400 208 352
WIRE 336 400 336 352
WIRE -64 416 -64 352
WIRE -64 496 -64 448
WIRE 80 496 80 480
WIRE 80 496 -64 496
WIRE 208 496 208 480
WIRE 208 496 80 496
WIRE 336 496 336 480
WIRE 336 496 208 496
WIRE 208 512 208 496
FLAG -336 0 Vcc
FLAG -336 240 Vee
FLAG -256 144 0
FLAG 128 272 0
FLAG 208 512 0
FLAG 336 352 Vout_passive
FLAG 192 192 Vee
FLAG 192 48 Vcc
FLAG 336 112 Vout_opamp
FLAG -112 272 0
FLAG -64 352 Vin_passive
FLAG -112 96 Vin_opamp
SYMBOL res 224 -48 R90
WINDOW 0 0 56 VBottom 2
WINDOW 3 32 56 VTop 2
SYMATTR InstName R1
SYMATTR Value {RF}
SYMBOL res 336 -48 R90
WINDOW 0 0 56 VBottom 2
WINDOW 3 32 56 VTop 2
SYMATTR InstName R2
SYMATTR Value {RF_var}
SYMBOL voltage -336 -16 R0
WINDOW 123 0 0 Left 0
WINDOW 39 0 0 Left 0
SYMATTR InstName V1
SYMATTR Value 15
SYMBOL voltage -336 96 R0
WINDOW 123 0 0 Left 0
WINDOW 39 0 0 Left 0
SYMATTR InstName V2
SYMATTR Value 15
SYMBOL res 64 80 R90
WINDOW 0 0 56 VBottom 2
WINDOW 3 32 56 VTop 2
SYMATTR InstName R3
SYMATTR Value {R}
SYMBOL cap 48 336 R90
WINDOW 0 0 32 VBottom 2
WINDOW 3 32 32 VTop 2
SYMATTR InstName C1
SYMATTR Value {C}
SYMBOL cap 176 336 R90
WINDOW 0 0 32 VBottom 2
WINDOW 3 32 32 VTop 2
SYMATTR InstName C2
SYMATTR Value {C}
SYMBOL cap 304 336 R90
WINDOW 0 0 32 VBottom 2
WINDOW 3 32 32 VTop 2
SYMATTR InstName C3
SYMATTR Value {C}
SYMBOL res 64 384 R0
SYMATTR InstName R4
SYMATTR Value {R}
SYMBOL res 192 384 R0
SYMATTR InstName R5
SYMATTR Value {R}
SYMBOL res 320 384 R0
SYMATTR InstName R6
SYMATTR Value {R}
SYMBOL EXTRA\\ExtraOpamps\\LM324_NS 192 112 R0
SYMATTR InstName U1
SYMBOL MiniSyms4\\signal- -64 432 R0
SYMATTR Value SINE(0 10 {freq})
SYMATTR InstName V3
SYMBOL MiniSyms4\\signal- -112 192 R0
WINDOW 123 0 0 Left 0
WINDOW 39 0 0 Left 0
SYMATTR Value SINE(0 100m {freq})
SYMATTR InstName V4
TEXT -144 616 Left 2 !.param C=2.5784n R=18k RD=35.999k RF=512k RF_var=300k
TEXT -152 592 Left 2 !;.step param RF_var 250k 350k 25k
TEXT -144 640 Left 2 !.tran 0 40m 0.1m 1e-6 startup uic
TEXT -136 568 Left 2 !.step param freq list 1.4k 1.5129108k
