Version 4
SHEET 1 1040 680
WIRE 144 -64 96 -64
WIRE 272 -64 224 -64
WIRE -336 -32 -336 -96
WIRE -336 80 -336 48
WIRE -304 80 -336 80
WIRE 192 80 192 48
WIRE -304 96 -304 80
WIRE -32 96 -128 96
WIRE 96 96 96 -64
WIRE 96 96 48 96
WIRE 160 96 96 96
WIRE 496 96 480 96
WIRE 592 96 560 96
WIRE 624 96 592 96
WIRE 720 96 688 96
WIRE 752 96 720 96
WIRE 848 96 816 96
WIRE 976 96 848 96
WIRE -336 112 -336 80
WIRE 272 112 272 -64
WIRE 272 112 224 112
WIRE 160 128 128 128
WIRE 592 144 592 96
WIRE 720 144 720 96
WIRE 848 144 848 96
WIRE 976 144 976 96
WIRE -128 160 -128 96
WIRE 480 160 480 96
WIRE 192 192 192 144
WIRE -128 240 -128 192
WIRE 480 240 480 192
WIRE 592 240 592 224
WIRE 720 240 720 224
WIRE 720 240 592 240
WIRE 848 240 848 224
WIRE 848 240 720 240
WIRE 976 240 976 224
WIRE 976 240 848 240
WIRE -336 256 -336 192
WIRE 720 256 720 240
WIRE 128 272 128 128
FLAG -336 -96 Vcc
FLAG -336 256 Vee
FLAG -304 96 0
FLAG 128 272 0
FLAG 720 256 0
FLAG 192 192 Vee
FLAG 192 48 Vcc
FLAG 272 112 Vout_opamp
FLAG -128 240 0
FLAG 480 240 0
FLAG -128 96 Vin_opamp
FLAG 480 96 Vin_rc
FLAG 976 96 Vout_rc
SYMBOL res 240 -80 R90
WINDOW 0 0 56 VBottom 2
WINDOW 3 32 56 VTop 2
SYMATTR InstName R1
SYMATTR Value {RF}
SYMBOL voltage -336 -48 R0
WINDOW 123 0 0 Left 0
WINDOW 39 0 0 Left 0
SYMATTR InstName V1
SYMATTR Value 15
SYMBOL voltage -336 96 R0
WINDOW 123 0 0 Left 0
WINDOW 39 0 0 Left 0
SYMATTR InstName V2
SYMATTR Value 15
SYMBOL res 64 80 R90
WINDOW 0 0 56 VBottom 2
WINDOW 3 32 56 VTop 2
SYMATTR InstName R3
SYMATTR Value {R}
SYMBOL cap 560 80 R90
WINDOW 0 0 32 VBottom 2
WINDOW 3 32 32 VTop 2
SYMATTR InstName C1
SYMATTR Value {C}
SYMBOL cap 688 80 R90
WINDOW 0 0 32 VBottom 2
WINDOW 3 32 32 VTop 2
SYMATTR InstName C2
SYMATTR Value {C}
SYMBOL cap 816 80 R90
WINDOW 0 0 32 VBottom 2
WINDOW 3 32 32 VTop 2
SYMATTR InstName C3
SYMATTR Value {C}
SYMBOL res 576 128 R0
WINDOW 3 29 98 Left 2
SYMATTR InstName R4
SYMATTR Value 12.014k
SYMBOL res 704 128 R0
SYMATTR InstName R5
SYMATTR Value {RH}
SYMBOL res 832 128 R0
SYMATTR InstName R6
SYMATTR Value {R}
SYMBOL ELN_IFSC\\LM324_ELN 192 112 R0
SYMATTR InstName U1
SYMBOL MiniSyms4\\signal- -128 176 R0
WINDOW 123 0 0 Left 0
WINDOW 39 0 0 Left 0
SYMATTR Value SINE(0 0.1 1.4k)
SYMATTR InstName V3
SYMBOL MiniSyms4\\signal- 480 176 R0
WINDOW 123 0 0 Left 0
WINDOW 39 0 0 Left 0
SYMATTR Value SINE(0 29 1.4k)
SYMATTR InstName V4
SYMBOL res 992 240 R180
WINDOW 0 36 76 Left 2
WINDOW 3 36 40 Left 2
SYMATTR InstName R2
SYMATTR Value {R}
TEXT -256 312 Left 2 !.param C=2.67n R=35.94k RH=17.97k RF=1.4087Meg RF_var=1
TEXT -256 336 Left 2 !.tran 0 10 0.1m 1e-6 startup uic
