Version 4
SHEET 1 1092 984
WIRE -336 -64 -336 -96
WIRE 144 -48 96 -48
WIRE 288 -48 224 -48
WIRE -336 80 -336 16
WIRE -176 80 -336 80
WIRE 192 80 192 48
WIRE -80 96 -112 96
WIRE 96 96 96 -48
WIRE 96 96 -80 96
WIRE 160 96 96 96
WIRE -336 112 -336 80
WIRE -176 112 -176 80
WIRE 288 112 288 -48
WIRE 288 112 224 112
WIRE 432 112 288 112
WIRE 160 128 128 128
WIRE -80 144 -80 96
WIRE -80 192 -80 176
WIRE 192 192 192 144
WIRE -336 240 -336 192
WIRE 128 240 128 128
FLAG -336 -96 Vcc
FLAG -336 240 Vee
FLAG -176 112 0
FLAG -112 96 Vi
FLAG 192 192 Vee
FLAG 192 48 Vcc
FLAG 432 112 Vout
FLAG -80 192 0
FLAG 128 240 0
SYMBOL voltage -336 -80 R0
WINDOW 123 0 0 Left 0
WINDOW 39 0 0 Left 0
SYMATTR InstName V1
SYMATTR Value 15
SYMBOL voltage -336 96 R0
WINDOW 123 0 0 Left 0
WINDOW 39 0 0 Left 0
SYMATTR InstName V2
SYMATTR Value 15
SYMBOL MiniSyms4\\signal- -80 160 R0
WINDOW 3 12 49 Left 0
WINDOW 123 12 21 Left 0
WINDOW 39 0 0 Left 0
SYMATTR Value SINE(0 100m {freq})
SYMATTR InstName V3
SYMATTR Value2 AC 1m
SYMBOL ELN_IFSC\\LM324_ELN 192 112 R0
SYMATTR InstName U1
SYMBOL ind 128 -32 R270
WINDOW 0 32 56 VTop 2
WINDOW 3 5 56 VBottom 2
SYMATTR InstName L1
SYMATTR Value 1m
TEXT -144 432 Left 2 !.param C=2.5784n R=18k RH=9k RF=522k RF_var=5k
TEXT -120 408 Left 2 !.step dec param freq 100 100k 10
TEXT -384 456 Left 2 !;.ac dec 100Meg 100 100Meg
TEXT -384 504 Left 2 !.tran {10 /freq}
TEXT -450 404 Left 2 !;.tran 1m startup uic
TEXT -96 544 Left 2 !.meas TRAN Vout PP V(vout)
