Version 4
SHEET 1 1404 764
WIRE 784 -416 176 -416
WIRE 1152 -384 1152 -400
WIRE 176 -288 176 -416
WIRE 1152 -272 1152 -304
WIRE 1152 -240 1152 -272
WIRE 128 -224 80 -224
WIRE 288 -224 224 -224
WIRE 1152 -144 1152 -160
WIRE 560 -64 464 -64
WIRE 784 -64 784 -416
WIRE 784 -64 624 -64
WIRE 80 -32 80 -224
WIRE 160 -32 80 -32
WIRE 288 -32 288 -224
WIRE 288 -32 224 -32
WIRE 1184 32 1168 32
WIRE 1296 32 1280 32
WIRE 496 64 480 64
WIRE 560 64 544 64
WIRE 192 96 176 96
WIRE 1184 96 1184 32
WIRE 1296 96 1296 32
WIRE 560 112 560 64
WIRE 192 128 192 96
WIRE 496 128 496 64
WIRE 528 128 496 128
WIRE -80 144 -144 144
WIRE 80 144 80 -32
WIRE 80 144 0 144
WIRE 160 144 80 144
WIRE 704 144 592 144
WIRE 784 144 784 -64
WIRE 784 144 704 144
WIRE 288 160 288 -32
WIRE 288 160 224 160
WIRE 336 160 288 160
WIRE 464 160 464 -64
WIRE 464 160 416 160
WIRE 528 160 464 160
WIRE 160 176 80 176
WIRE 1184 176 1184 128
WIRE 1248 176 1184 176
WIRE 1296 176 1296 128
WIRE 1296 176 1248 176
WIRE 560 224 560 176
WIRE 560 224 544 224
WIRE 80 240 80 176
WIRE 192 240 192 192
WIRE 192 240 176 240
FLAG 80 240 0
FLAG 496 64 Vdc
FLAG -144 144 Vco
FLAG 192 96 Vcc
FLAG 560 64 Vcc
FLAG 560 224 Vdd
FLAG 192 240 Vdd
FLAG 1248 176 0
FLAG 1184 32 Vco
FLAG 1296 32 Vdc
FLAG 1152 -272 0
FLAG 1152 -144 Vdd
FLAG 1152 -400 Vcc
FLAG 288 160 Vout
FLAG 704 144 Vcomp
SYMBOL EXTRA\\ExtraOpamps\\TL082 192 160 R0
SYMATTR InstName U1
SYMBOL EXTRA\\ExtraOpamps\\TL082 560 144 R0
SYMATTR InstName U2
SYMBOL res 432 144 R90
WINDOW 0 0 56 VBottom 2
WINDOW 3 32 56 VTop 2
SYMATTR InstName R1
SYMATTR Value 1k
SYMBOL cap 224 -48 R90
WINDOW 0 0 32 VBottom 2
WINDOW 3 32 32 VTop 2
SYMATTR InstName C1
SYMATTR Value 2.7n
SYMBOL npn 224 -288 R90
SYMATTR InstName Q1
SYMATTR Value BC548B
SYMBOL cap 624 -80 R90
WINDOW 0 0 32 VBottom 2
WINDOW 3 32 32 VTop 2
SYMATTR InstName C2
SYMATTR Value 1n
SYMBOL res 16 128 R90
WINDOW 0 0 56 VBottom 2
WINDOW 3 32 56 VTop 2
SYMATTR InstName R2
SYMATTR Value 100k
SYMBOL voltage 1152 -400 R0
WINDOW 123 0 0 Left 0
WINDOW 39 0 0 Left 0
SYMATTR InstName V1
SYMATTR Value 12
SYMBOL voltage 1152 -256 R0
WINDOW 123 0 0 Left 0
WINDOW 39 0 0 Left 0
SYMATTR InstName V2
SYMATTR Value 12
SYMBOL MiniSyms4\\signal- 1184 112 R0
WINDOW 123 0 0 Left 0
WINDOW 39 0 0 Left 0
SYMATTR Value -3
SYMATTR InstName V3
SYMBOL MiniSyms4\\signal- 1296 112 R0
WINDOW 123 0 0 Left 0
WINDOW 39 0 0 Left 0
SYMATTR Value 7
SYMATTR InstName V4
TEXT 1128 200 Left 2 !.tran 0 2m 0.1m startup
